Version 4
SHEET 1 2960 680
WIRE 1376 -128 1248 -128
WIRE 1472 -128 1376 -128
WIRE 1792 -128 1472 -128
WIRE 1824 -128 1792 -128
WIRE 1920 -128 1904 -128
WIRE 2032 -128 1920 -128
WIRE 2144 -128 2096 -128
WIRE 2192 -128 2144 -128
WIRE 2240 -128 2192 -128
WIRE 2288 -128 2240 -128
WIRE 2400 -128 2288 -128
WIRE 2528 -128 2400 -128
WIRE 1248 -112 1248 -128
WIRE 1472 -112 1472 -128
WIRE 2192 -112 2192 -128
WIRE 2240 -112 2240 -128
WIRE 2288 -112 2288 -128
WIRE 1376 -96 1376 -128
WIRE 2400 -96 2400 -128
WIRE 1792 -80 1792 -128
WIRE 1920 -80 1920 -128
WIRE 2528 -64 2528 -128
WIRE 1248 -16 1248 -32
WIRE 1472 -16 1472 -32
WIRE 1696 -16 1472 -16
WIRE 2032 -16 2016 -16
WIRE 2112 -16 2096 -16
WIRE 2192 -16 2192 -48
WIRE 2240 -16 2240 -48
WIRE 2288 -16 2288 -48
WIRE 1376 0 1376 -32
WIRE 1472 0 1472 -16
WIRE 2400 16 2400 -16
WIRE 1616 80 1600 80
WIRE 1696 80 1680 80
WIRE 2032 80 2016 80
WIRE 1472 96 1472 80
WIRE 2400 112 2400 80
WIRE 2528 112 2528 16
WIRE 1552 176 1504 176
WIRE 1696 176 1632 176
WIRE 2032 176 2032 80
WIRE 2032 176 2016 176
WIRE 2144 176 2144 -128
WIRE 1520 272 1504 272
WIRE 1600 272 1584 272
WIRE 1696 272 1680 272
WIRE 2144 272 2144 256
WIRE 2144 272 2016 272
WIRE 2144 288 2144 272
WIRE 1792 352 1792 336
WIRE 1920 352 1920 336
WIRE 2144 384 2144 368
FLAG 2192 -16 0
FLAG 1248 -16 0
FLAG 1248 -128 IN
FLAG 1920 352 0
FLAG 1792 352 0
FLAG 2112 -16 0
FLAG 2144 384 0
FLAG 1600 80 0
FLAG 1472 96 0
FLAG 1504 176 0
FLAG 1504 272 0
FLAG 2528 112 0
FLAG 2528 -128 Vout
FLAG 2400 112 0
FLAG 1376 0 0
FLAG 2240 -16 0
FLAG 2288 -16 0
SYMBOL RES 1648 160 R90
WINDOW 0 0 56 VBottom 2
WINDOW 3 32 56 VTop 2
SYMATTR InstName R1
SYMATTR Value 41.2K
SYMBOL res 2128 272 R0
SYMATTR InstName R2
SYMATTR Value 15.8K
SYMATTR SpiceLine tol=1 pwr=0.1
SYMBOL res 2128 160 R0
SYMATTR InstName R3
SYMATTR Value 226K
SYMATTR SpiceLine tol=1 pwr=0.1
SYMBOL ind 1808 -112 R270
WINDOW 0 32 56 VTop 2
WINDOW 3 5 56 VBottom 2
SYMATTR InstName L1
SYMATTR Value 33µ
SYMATTR SpiceLine Rser=0.05
SYMBOL schottky 2032 -112 R270
WINDOW 0 32 32 VTop 2
WINDOW 3 0 32 VBottom 2
SYMATTR InstName D1
SYMATTR Value MBRS360
SYMBOL res 1696 256 R90
WINDOW 0 0 56 VBottom 2
WINDOW 3 32 56 VTop 2
SYMATTR InstName R4
SYMATTR Value 10K
SYMBOL cap 1584 288 M270
WINDOW 0 32 32 VTop 2
WINDOW 3 0 32 VBottom 2
SYMATTR InstName C2
SYMATTR Value .01µ
SYMBOL VOLTAGE 1248 -128 R0
WINDOW 123 0 0 Left 2
WINDOW 39 0 0 Left 2
SYMATTR InstName V1
SYMATTR Value 12
SYMBOL cap 1680 64 R90
WINDOW 0 0 32 VBottom 2
WINDOW 3 32 32 VTop 2
SYMATTR InstName C4
SYMATTR Value .033µ
SYMBOL res 1456 -16 R0
SYMATTR InstName R5
SYMATTR Value 53.6K
SYMBOL res 1456 -128 R0
SYMATTR InstName R6
SYMATTR Value 392K
SYMBOL PowerProducts\\LT3958 1856 128 R0
SYMATTR InstName U1
SYMBOL cap 2176 -112 R0
WINDOW 0 23 10 Left 2
SYMATTR InstName C1
SYMATTR Value 4.7µ
SYMATTR SpiceLine V=50 Irms=15 Rser=0.00481132 Lser=0 mfg="KEMET" pn="C1210C475K5RAC" type="X7R"
SYMBOL cap 2032 0 R270
WINDOW 0 32 32 VTop 2
WINDOW 3 0 32 VBottom 2
SYMATTR InstName C3
SYMATTR Value 4.7µ
SYMBOL current 2528 -64 R0
WINDOW 123 0 0 Left 2
WINDOW 39 0 0 Left 2
SYMATTR InstName I1
SYMATTR Value 1.
SYMBOL res 2384 -112 R0
SYMATTR InstName R10
SYMATTR Value 1.1k
SYMBOL LED 2384 16 R0
SYMATTR InstName D2
SYMATTR Value QTLP690C
SYMBOL cap 1360 -96 R0
SYMATTR InstName C6
SYMATTR Value 4.7µ
SYMATTR SpiceLine V=100 Irms=5.73 Rser=0.0196416 Lser=0
SYMBOL cap 2224 -112 R0
WINDOW 0 23 10 Left 2
SYMATTR InstName C5
SYMATTR Value 4.7µ
SYMATTR SpiceLine V=50 Irms=15 Rser=0.00481132 Lser=0 mfg="KEMET" pn="C1210C475K5RAC" type="X7R"
SYMBOL cap 2272 -112 R0
WINDOW 0 23 10 Left 2
SYMATTR InstName C7
SYMATTR Value 4.7µ
SYMATTR SpiceLine V=50 Irms=15 Rser=0.00481132 Lser=0 mfg="KEMET" pn="C1210C475K5RAC" type="X7R"
TEXT 2264 336 Left 2 !.tran 5m startup
TEXT 1880 -176 Bottom 2 ;LT3958 - Boost Converter\nInput: 14.8V       Output: 24V@1,000mA
TEXT 1256 448 Left 2 ;Note:\n  If the simulation model is not found please update with the "Sync Release" command from the "Tools" menu.\n  It remains the customer's responsibility to verify proper and reliable operation in the actual application.\n  Component substitution and printed circuit board layout may significantly affect circuit performance or reliability.\n  Contact your local sales representative for assistance. This circuit is distributed to customers only for use with LTC parts.\n  Copyright © 2011 Linear Technology Inc. All rights reserved.
