Version 4
SHEET 1 1676 864
WIRE 592 -368 160 -368
WIRE -128 -352 -224 -352
WIRE -64 -352 -128 -352
WIRE 0 -352 -64 -352
WIRE 32 -352 0 -352
WIRE 352 -352 32 -352
WIRE 1040 -352 352 -352
WIRE -224 -336 -224 -352
WIRE -128 -336 -128 -352
WIRE -64 -336 -64 -352
WIRE 0 -336 0 -352
WIRE 352 -336 352 -352
WIRE 176 -272 48 -272
WIRE 560 -272 544 -272
WIRE 592 -272 592 -368
WIRE 912 -272 784 -272
WIRE 960 -272 912 -272
WIRE 1136 -272 960 -272
WIRE 1248 -272 1136 -272
WIRE 1344 -272 1248 -272
WIRE -128 -256 -128 -272
WIRE -64 -256 -64 -272
WIRE -64 -256 -128 -256
WIRE 0 -256 0 -272
WIRE 0 -256 -64 -256
WIRE 784 -256 784 -272
WIRE 1136 -256 1136 -272
WIRE 1248 -256 1248 -272
WIRE 1344 -256 1344 -272
WIRE 1376 -256 1344 -256
WIRE 1424 -256 1376 -256
WIRE 1488 -256 1424 -256
WIRE 1552 -256 1488 -256
WIRE 1616 -256 1552 -256
WIRE -64 -240 -64 -256
WIRE 912 -240 912 -272
WIRE 960 -240 960 -272
WIRE -224 -224 -224 -256
WIRE 1376 -192 1344 -192
WIRE 1424 -192 1376 -192
WIRE 1488 -192 1424 -192
WIRE 1552 -192 1488 -192
WIRE 1616 -192 1552 -192
WIRE 96 -176 32 -176
WIRE 160 -176 160 -368
WIRE 160 -176 96 -176
WIRE 176 -176 160 -176
WIRE 736 -176 544 -176
WIRE 96 -160 96 -176
WIRE 912 -160 912 -176
WIRE 960 -160 960 -176
WIRE 960 -160 912 -160
WIRE 1024 -160 960 -160
WIRE 1248 -160 1248 -176
WIRE 1344 -160 1344 -192
WIRE 1024 -144 1024 -160
WIRE 1136 -144 1136 -176
WIRE 1136 -144 1088 -144
WIRE 1136 -128 1136 -144
WIRE 48 -80 48 -272
WIRE 48 -80 -32 -80
WIRE 176 -80 96 -80
WIRE 592 -80 592 -208
WIRE 592 -80 544 -80
WIRE 592 -64 592 -80
WIRE 1136 -32 1136 -48
WIRE -32 16 -32 -80
WIRE 176 16 -32 16
WIRE 592 16 592 0
WIRE 592 16 544 16
WIRE 784 16 784 -160
WIRE 784 16 592 16
WIRE 800 16 784 16
WIRE 928 16 880 16
WIRE 944 16 928 16
WIRE 1040 16 1040 -352
WIRE 1040 16 1024 16
WIRE 784 32 784 16
WIRE 176 112 144 112
WIRE 736 112 544 112
WIRE 784 144 784 128
WIRE -32 208 -32 16
WIRE 16 208 -32 208
WIRE 176 208 96 208
WIRE 1040 208 1040 16
WIRE 1040 208 544 208
WIRE -32 304 -32 208
WIRE 176 304 -32 304
WIRE 928 304 928 16
WIRE 928 304 544 304
WIRE -32 336 -32 304
WIRE 80 400 48 400
WIRE 176 400 144 400
WIRE 1088 400 1088 -144
WIRE 1088 400 544 400
WIRE -16 496 -48 496
WIRE 64 496 48 496
WIRE 160 496 144 496
WIRE 176 496 160 496
WIRE 560 496 544 496
WIRE -16 576 -16 496
WIRE 32 576 -16 576
WIRE 160 576 160 496
WIRE 160 576 96 576
FLAG -32 -176 0
FLAG -224 -224 0
FLAG 1248 -160 0
FLAG 1248 -272 OUT
FLAG 32 -352 IN
FLAG 1136 -32 0
FLAG -48 496 0
FLAG 784 144 0
FLAG 48 400 0
FLAG 560 496 0
FLAG -64 -240 0
FLAG 1344 -160 0
FLAG 1024 -144 0
FLAG -32 336 0
SYMBOL cap 32 -192 R90
WINDOW 3 32 32 VTop 2
WINDOW 0 0 32 VBottom 2
SYMATTR Value 4.7µ
SYMATTR InstName C1
SYMBOL voltage -224 -352 R0
WINDOW 123 0 0 Left 0
WINDOW 39 0 0 Left 0
SYMATTR InstName V1
SYMATTR Value 14.8
SYMBOL res 1120 -144 R0
SYMATTR InstName R4
SYMATTR Value 10k
SYMBOL res 1120 -272 R0
SYMATTR InstName R5
SYMATTR Value 390k
SYMBOL ind 896 32 M270
WINDOW 0 32 56 VTop 2
WINDOW 3 5 56 VBottom 2
SYMATTR InstName L2
SYMATTR Value 33µ
SYMATTR SpiceLine Ipk=30 Rser=2.16m
SYMBOL nmos 736 -256 R0
WINDOW 0 56 21 Left 2
WINDOW 3 54 125 Left 2
SYMATTR InstName Q3
SYMATTR Value BSC028N06LS3
SYMBOL nmos 736 32 R0
WINDOW 0 57 40 Left 2
WINDOW 3 63 102 Left 2
SYMATTR InstName Q4
SYMATTR Value BSC028N06LS3
SYMBOL cap 576 -64 R0
SYMATTR InstName C6
SYMATTR Value .1µ
SYMATTR SpiceLine Lser=200m
SYMBOL schottky 576 -272 R0
WINDOW 3 23 69 Left 2
SYMATTR Value RB558VA150
SYMATTR InstName D2
SYMATTR Description Diode
SYMATTR Type diode
SYMBOL res 1232 -272 R0
SYMATTR InstName Rload
SYMATTR Value 480
SYMBOL PowerProducts\\LTC3769 352 112 R0
SYMATTR InstName U1
SYMBOL cap 144 384 R90
WINDOW 0 0 32 VBottom 2
WINDOW 3 32 32 VTop 2
SYMATTR InstName C2
SYMATTR Value .047µ
SYMBOL cap -80 -336 R0
SYMATTR InstName C7
SYMATTR Value 4.7µ
SYMBOL res 112 192 R90
WINDOW 0 0 56 VBottom 2
WINDOW 3 32 56 VTop 2
SYMATTR InstName R3
SYMATTR Value 30.1k
SYMBOL res 80 -176 R0
SYMATTR InstName R6
SYMATTR Value 100k
SYMBOL polcap 896 -240 R0
SYMATTR InstName C8
SYMATTR Value 33µ
SYMBOL polcap 944 -240 R0
SYMATTR InstName C9
SYMATTR Value 33µ
SYMBOL cap 1360 -256 R0
SYMATTR InstName C3
SYMATTR Value 4.7µ
SYMBOL cap 1408 -256 R0
SYMATTR InstName C10
SYMATTR Value 4.7µ
SYMBOL cap 1472 -256 R0
SYMATTR InstName C11
SYMATTR Value 4.7µ
SYMBOL cap 1536 -256 R0
SYMATTR InstName C12
SYMATTR Value 4.7µ
SYMBOL cap 1600 -256 R0
SYMATTR InstName C13
SYMATTR Value 4.7µ
SYMBOL cap 48 480 R90
WINDOW 0 0 32 VBottom 2
WINDOW 3 32 32 VTop 2
SYMATTR InstName C4
SYMATTR Value 15n
SYMBOL cap 96 560 R90
WINDOW 0 0 32 VBottom 2
WINDOW 3 32 32 VTop 2
SYMATTR InstName C5
SYMATTR Value 100p
SYMBOL res 160 480 R90
WINDOW 0 0 56 VBottom 2
WINDOW 3 32 56 VTop 2
SYMATTR InstName R1
SYMATTR Value 15k
SYMBOL cap -144 -336 R0
SYMATTR InstName C14
SYMATTR Value 4.7µ
SYMBOL cap -16 -336 R0
SYMATTR InstName C15
SYMATTR Value 4.7µ
SYMBOL res 1040 0 R90
WINDOW 0 0 56 VBottom 2
WINDOW 3 32 56 VTop 2
SYMATTR InstName R2
SYMATTR Value 3m
TEXT 872 440 Left 2 !.tran 14m startup
