Version 4
SHEET 1 3184 680
WIRE 1376 -128 1280 -128
WIRE 1472 -128 1376 -128
WIRE 1792 -128 1472 -128
WIRE 1824 -128 1792 -128
WIRE 1920 -128 1904 -128
WIRE 2032 -128 1920 -128
WIRE 2144 -128 2096 -128
WIRE 2208 -128 2144 -128
WIRE 2288 -128 2208 -128
WIRE 2368 -128 2288 -128
WIRE 2496 -128 2368 -128
WIRE 2592 -128 2496 -128
WIRE 2624 -128 2592 -128
WIRE 2736 -128 2704 -128
WIRE 2816 -128 2736 -128
WIRE 2992 -128 2816 -128
WIRE 3120 -128 2992 -128
WIRE 1280 -112 1280 -128
WIRE 1472 -112 1472 -128
WIRE 2208 -112 2208 -128
WIRE 2288 -112 2288 -128
WIRE 2496 -112 2496 -128
WIRE 1376 -96 1376 -128
WIRE 2992 -96 2992 -128
WIRE 1792 -80 1792 -128
WIRE 1920 -80 1920 -128
WIRE 2592 -64 2592 -128
WIRE 2656 -64 2592 -64
WIRE 2736 -64 2736 -128
WIRE 2736 -64 2688 -64
WIRE 2816 -64 2816 -128
WIRE 3120 -64 3120 -128
WIRE 1280 -16 1280 -32
WIRE 1472 -16 1472 -32
WIRE 1696 -16 1472 -16
WIRE 2032 -16 2016 -16
WIRE 2112 -16 2096 -16
WIRE 2208 -16 2208 -48
WIRE 2288 -16 2288 -48
WIRE 2496 -16 2496 -48
WIRE 2656 -16 2656 -64
WIRE 2688 -16 2688 -64
WIRE 1376 0 1376 -32
WIRE 1472 0 1472 -16
WIRE 2992 16 2992 -16
WIRE 2816 48 2816 16
WIRE 2928 48 2816 48
WIRE 2816 64 2816 48
WIRE 1616 80 1600 80
WIRE 1696 80 1680 80
WIRE 2032 80 2016 80
WIRE 2144 80 2144 -128
WIRE 1472 96 1472 80
WIRE 2992 112 2992 80
WIRE 3120 112 3120 16
WIRE 1552 176 1504 176
WIRE 1696 176 1632 176
WIRE 2032 176 2032 80
WIRE 2032 176 2016 176
WIRE 2656 176 2656 112
WIRE 2816 176 2816 144
WIRE 2928 176 2928 48
WIRE 3008 176 2928 176
WIRE 3056 176 3008 176
WIRE 2144 192 2144 160
WIRE 2144 192 2080 192
WIRE 2144 224 2144 192
WIRE 2688 224 2688 112
WIRE 2992 224 2688 224
WIRE 3072 224 2992 224
WIRE 1520 272 1504 272
WIRE 1600 272 1584 272
WIRE 1696 272 1680 272
WIRE 2080 272 2080 192
WIRE 2080 272 2016 272
WIRE 1792 352 1792 336
WIRE 1920 352 1920 336
WIRE 2144 384 2144 304
FLAG 2208 -16 0
FLAG 1280 -16 0
FLAG 2368 -128 OUT
FLAG 1280 -128 IN
FLAG 1920 352 0
FLAG 1792 352 0
FLAG 2112 -16 0
FLAG 2144 384 0
FLAG 1600 80 0
FLAG 1472 96 0
FLAG 1504 176 0
FLAG 1504 272 0
FLAG 2496 -16 0
FLAG 2288 -16 0
FLAG 3120 112 0
FLAG 2656 176 0
FLAG 3120 -128 Vout
FLAG 2816 176 0
FLAG 3008 176 Micro_Volt
FLAG 2992 224 Micro_Current
FLAG 2992 112 0
FLAG 1376 0 0
SYMBOL RES 1648 160 R90
WINDOW 0 0 56 VBottom 2
WINDOW 3 32 56 VTop 2
SYMATTR InstName R1
SYMATTR Value 41.2K
SYMBOL res 2128 208 R0
SYMATTR InstName R2
SYMATTR Value 15.8K
SYMATTR SpiceLine tol=1 pwr=0.1
SYMBOL res 2128 64 R0
SYMATTR InstName R3
SYMATTR Value 464K
SYMATTR SpiceLine tol=1 pwr=0.1
SYMBOL ind 1808 -112 R270
WINDOW 0 32 56 VTop 2
WINDOW 3 5 56 VBottom 2
SYMATTR InstName L1
SYMATTR Value 33µ
SYMATTR SpiceLine Rser=0.05
SYMBOL schottky 2032 -112 R270
WINDOW 0 32 32 VTop 2
WINDOW 3 0 32 VBottom 2
SYMATTR InstName D1
SYMATTR Value MBRS360
SYMBOL res 1696 256 R90
WINDOW 0 0 56 VBottom 2
WINDOW 3 32 56 VTop 2
SYMATTR InstName R4
SYMATTR Value 10K
SYMBOL cap 1584 288 M270
WINDOW 0 32 32 VTop 2
WINDOW 3 0 32 VBottom 2
SYMATTR InstName C2
SYMATTR Value 10n
SYMBOL VOLTAGE 1280 -128 R0
SYMATTR InstName V1
SYMATTR Value 12
SYMBOL cap 1680 64 R90
WINDOW 0 0 32 VBottom 2
WINDOW 3 32 32 VTop 2
SYMATTR InstName C4
SYMATTR Value .033µ
SYMBOL res 1456 -16 R0
SYMATTR InstName R5
SYMATTR Value 53.6K
SYMBOL res 1456 -128 R0
SYMATTR InstName R6
SYMATTR Value 392K
SYMBOL PowerProducts\\LT3958 1856 128 R0
SYMATTR InstName U1
SYMBOL cap 2192 -112 R0
SYMATTR InstName C1
SYMATTR Value 4.7µ
SYMATTR SpiceLine Rser=0.005
SYMBOL cap 2032 0 R270
WINDOW 0 32 32 VTop 2
WINDOW 3 0 32 VBottom 2
SYMATTR InstName C3
SYMATTR Value 4.7µ
SYMBOL cap 2272 -112 R0
SYMATTR InstName C5
SYMATTR Value 4.7µ
SYMATTR SpiceLine Rser=0.005
SYMBOL current 3120 -64 R0
WINDOW 123 0 0 Left 2
WINDOW 39 0 0 Left 2
SYMATTR InstName I2
SYMATTR Value .38
SYMBOL AutoGenerated\\AD8217 2672 48 M90
SYMATTR InstName U2
SYMBOL res 2608 -112 R270
WINDOW 0 32 56 VTop 2
WINDOW 3 0 56 VBottom 2
SYMATTR InstName R7
SYMATTR Value .1R
SYMBOL res 2800 -80 R0
SYMATTR InstName R8
SYMATTR Value 40.7K
SYMBOL res 2800 48 R0
SYMATTR InstName R9
SYMATTR Value 3.3K
SYMBOL res 2976 -112 R0
SYMATTR InstName R10
SYMATTR Value 2.3K
SYMBOL LED 2976 16 R0
SYMATTR InstName D2
SYMATTR Value QTLP690C
SYMBOL cap 2480 -112 R0
SYMATTR InstName C6
SYMATTR Value 1µ
SYMBOL cap 1360 -96 R0
SYMATTR InstName C7
SYMATTR Value 4.7µ
SYMATTR SpiceLine V=100 Irms=5.73 Rser=0.0196416 Lser=0
TEXT 2264 336 Left 2 !.tran 5m startup
TEXT 1880 -176 Bottom 2 ;LT3958 - Boost Converter\nInput: 14.8V       Output: 48V@500mA
TEXT 1280 408 Left 2 ;Note:\n  If the simulation model is not found please update with the "Sync Release" command from the "Tools" menu.\n  It remains the customer's responsibility to verify proper and reliable operation in the actual application.\n  Component substitution and printed circuit board layout may significantly affect circuit performance or reliability.\n  Contact your local sales representative for assistance. This circuit is distributed to customers only for use with LTC parts.\n  Copyright © 2011 Linear Technology Inc. All rights reserved.
