Version 4
SHEET 1 3444 680
WIRE 2016 -224 1984 -224
WIRE 2112 -224 2080 -224
WIRE 1392 -128 1312 -128
WIRE 1408 -128 1392 -128
WIRE 1472 -128 1408 -128
WIRE 1792 -128 1472 -128
WIRE 1824 -128 1792 -128
WIRE 1920 -128 1904 -128
WIRE 1984 -128 1984 -224
WIRE 1984 -128 1920 -128
WIRE 2016 -128 1984 -128
WIRE 2112 -128 2112 -224
WIRE 2112 -128 2080 -128
WIRE 2128 -128 2112 -128
WIRE 2208 -128 2128 -128
WIRE 2320 -128 2272 -128
WIRE 2384 -128 2320 -128
WIRE 2464 -128 2384 -128
WIRE 2544 -128 2464 -128
WIRE 2592 -128 2544 -128
WIRE 2688 -128 2592 -128
WIRE 2720 -128 2688 -128
WIRE 2832 -128 2800 -128
WIRE 2912 -128 2832 -128
WIRE 3088 -128 2912 -128
WIRE 3216 -128 3088 -128
WIRE 1312 -112 1312 -128
WIRE 1472 -112 1472 -128
WIRE 2384 -112 2384 -128
WIRE 2464 -112 2464 -128
WIRE 2592 -112 2592 -128
WIRE 1408 -96 1408 -128
WIRE 2128 -96 2128 -128
WIRE 3088 -96 3088 -128
WIRE 1792 -80 1792 -128
WIRE 1920 -80 1920 -128
WIRE 2688 -64 2688 -128
WIRE 2752 -64 2688 -64
WIRE 2832 -64 2832 -128
WIRE 2832 -64 2784 -64
WIRE 2912 -64 2912 -128
WIRE 3216 -64 3216 -128
WIRE 1472 -16 1472 -32
WIRE 1696 -16 1472 -16
WIRE 2080 -16 2016 -16
WIRE 2384 -16 2384 -48
WIRE 2464 -16 2464 -48
WIRE 2592 -16 2592 -48
WIRE 2752 -16 2752 -64
WIRE 2784 -16 2784 -64
WIRE 1312 0 1312 -32
WIRE 1408 0 1408 -32
WIRE 1472 0 1472 -16
WIRE 2080 0 2080 -16
WIRE 2128 16 2128 -16
WIRE 3088 16 3088 -16
WIRE 2912 48 2912 16
WIRE 3024 48 2912 48
WIRE 2912 64 2912 48
WIRE 1616 80 1600 80
WIRE 1696 80 1680 80
WIRE 2032 80 2016 80
WIRE 2080 80 2080 64
WIRE 1472 96 1472 80
WIRE 3088 112 3088 80
WIRE 3216 112 3216 16
WIRE 2320 160 2320 -128
WIRE 1552 176 1504 176
WIRE 1696 176 1632 176
WIRE 2032 176 2032 80
WIRE 2032 176 2016 176
WIRE 2752 176 2752 112
WIRE 2912 176 2912 144
WIRE 3024 176 3024 48
WIRE 3104 176 3024 176
WIRE 3152 176 3104 176
WIRE 2784 224 2784 112
WIRE 3088 224 2784 224
WIRE 3168 224 3088 224
WIRE 1520 272 1504 272
WIRE 1600 272 1584 272
WIRE 1696 272 1680 272
WIRE 2320 272 2320 240
WIRE 2320 272 2016 272
WIRE 2320 288 2320 272
WIRE 1792 352 1792 336
WIRE 1920 352 1920 336
WIRE 2320 384 2320 368
FLAG 2384 -16 0
FLAG 1312 0 0
FLAG 2544 -128 OUT
FLAG 1392 -128 IN
FLAG 1920 352 0
FLAG 1792 352 0
FLAG 2080 80 0
FLAG 2320 384 0
FLAG 1600 80 0
FLAG 1472 96 0
FLAG 1504 176 0
FLAG 1504 272 0
FLAG 2464 -16 0
FLAG 1408 0 0
FLAG 2128 16 0
FLAG 2592 -16 0
FLAG 3216 112 0
FLAG 2752 176 0
FLAG 3216 -128 Vout
FLAG 2912 176 0
FLAG 3104 176 Micro_Volt
FLAG 3088 224 Micro_Current
FLAG 3088 112 0
SYMBOL RES 1648 160 R90
WINDOW 0 0 56 VBottom 2
WINDOW 3 32 56 VTop 2
SYMATTR InstName R1
SYMATTR Value 41.2K
SYMBOL res 2304 272 R0
SYMATTR InstName R2
SYMATTR Value 15.8K
SYMATTR SpiceLine tol=1 pwr=0.1
SYMBOL res 2304 144 R0
SYMATTR InstName R3
SYMATTR Value 105k
SYMATTR SpiceLine tol=1 pwr=0.1
SYMBOL ind2 1808 -112 R270
WINDOW 0 32 56 VTop 2
WINDOW 3 5 56 VBottom 2
SYMATTR InstName L1
SYMATTR Value 22µ
SYMATTR SpiceLine Ipk=4.71 Rser=0.0396 Rpar=0 Cpar=0
SYMATTR Type ind
SYMBOL schottky 2208 -112 R270
WINDOW 0 32 32 VTop 2
WINDOW 3 0 32 VBottom 2
SYMATTR InstName D1
SYMATTR Value MBRS360
SYMBOL res 1696 256 R90
WINDOW 0 0 56 VBottom 2
WINDOW 3 32 56 VTop 2
SYMATTR InstName R4
SYMATTR Value 10K
SYMBOL cap 1584 288 M270
WINDOW 0 32 32 VTop 2
WINDOW 3 0 32 VBottom 2
SYMATTR InstName C2
SYMATTR Value 10n
SYMBOL VOLTAGE 1312 -128 R0
SYMATTR InstName V1
SYMATTR Value 14.8
SYMBOL cap 1680 64 R90
WINDOW 0 0 32 VBottom 2
WINDOW 3 32 32 VTop 2
SYMATTR InstName C4
SYMATTR Value .033µ
SYMBOL res 1456 -16 R0
SYMATTR InstName R5
SYMATTR Value 66.5K
SYMBOL res 1456 -128 R0
SYMATTR InstName R6
SYMATTR Value 392K
SYMBOL PowerProducts\\LT3958 1856 128 R0
SYMATTR InstName U1
SYMBOL cap 2368 -112 R0
SYMATTR InstName C1
SYMATTR Value 22µ
SYMATTR SpiceLine V=16 Irms=11.2 Rser=0.00392876 Lser=0 mfg="KEMET" pn="C1210C226K4PAC" type="X5R"
SYMBOL cap 2096 0 M0
WINDOW 0 23 13 Left 2
SYMATTR InstName C3
SYMATTR Value 4.7µ
SYMBOL cap 2448 -112 R0
SYMATTR InstName C5
SYMATTR Value 22µ
SYMATTR SpiceLine V=16 Irms=11.2 Rser=0.00392876 Lser=0 mfg="KEMET" pn="C1210C226K4PAC" type="X5R"
SYMBOL cap 1392 -96 R0
SYMATTR InstName C6
SYMATTR Value 2.2µ
SYMATTR SpiceLine V=50
SYMBOL ind 2112 -112 R0
SYMATTR InstName L2
SYMATTR Value 22µ
SYMATTR SpiceLine Ipk=4.71 Rser=0.0396 Rpar=0 Cpar=0
SYMBOL cap 2016 -112 R270
WINDOW 0 32 32 VTop 2
WINDOW 3 0 32 VBottom 2
SYMATTR InstName C7
SYMATTR Value 2.2µ
SYMATTR SpiceLine V=100 Irms=5.54 Rser=0.0279723 Lser=0 mfg="KEMET" pn="C1812C225K1RAC" type="X7R"
SYMBOL cap 2016 -208 R270
WINDOW 0 32 32 VTop 2
WINDOW 3 0 32 VBottom 2
SYMATTR InstName C8
SYMATTR Value 2.2µ
SYMATTR SpiceLine V=100 Irms=5.54 Rser=0.0279723 Lser=0 mfg="KEMET" pn="C1812C225K1RAC" type="X7R"
SYMBOL current 3216 -64 R0
WINDOW 123 0 0 Left 2
WINDOW 39 0 0 Left 2
SYMATTR InstName I2
SYMATTR Value 1
SYMBOL AutoGenerated\\AD8217 2768 48 M90
SYMATTR InstName U2
SYMBOL res 2704 -112 R270
WINDOW 0 32 56 VTop 2
WINDOW 3 0 56 VBottom 2
SYMATTR InstName R7
SYMATTR Value .1R
SYMBOL res 2896 -80 R0
SYMATTR InstName R8
SYMATTR Value 8.7K
SYMBOL res 2896 48 R0
SYMATTR InstName R9
SYMATTR Value 3.3K
SYMBOL res 3072 -112 R0
SYMATTR InstName R10
SYMATTR Value 500
SYMBOL LED 3072 16 R0
SYMATTR InstName D2
SYMATTR Value QTLP690C
SYMBOL cap 2576 -112 R0
SYMATTR InstName C9
SYMATTR Value 1µ
TEXT 2448 336 Left 2 !.tran 0 6m 0 .01m startup
TEXT 1704 -224 Bottom 2 ;LT3958 - Boost Converter\nInput: 14.8V       Output: 12V@500mA
TEXT 1280 408 Left 2 ;Note:\n  If the simulation model is not found please update with the "Sync Release" command from the "Tools" menu.\n  It remains the customer's responsibility to verify proper and reliable operation in the actual application.\n  Component substitution and printed circuit board layout may significantly affect circuit performance or reliability.\n  Contact your local sales representative for assistance. This circuit is distributed to customers only for use with LTC parts.\n  Copyright © 2011 Linear Technology Inc. All rights reserved.
