Version 4
SHEET 1 892 876
WIRE -80 -80 -288 -80
WIRE 176 -80 0 -80
WIRE 288 -80 176 -80
WIRE 432 -80 384 -80
WIRE 432 -64 432 -80
WIRE 480 -64 432 -64
WIRE 800 -64 480 -64
WIRE 320 -32 304 -32
WIRE 800 0 800 -64
WIRE 320 64 320 -32
WIRE -288 96 -288 -80
WIRE 176 128 176 -80
WIRE 192 128 176 128
WIRE 480 128 480 -64
WIRE 480 128 448 128
WIRE 800 144 800 80
WIRE 816 144 800 144
WIRE -288 208 -288 176
WIRE 480 224 480 128
WIRE 480 224 448 224
WIRE 320 320 320 288
WIRE -96 448 -304 448
WIRE 160 448 -16 448
WIRE 256 448 160 448
WIRE 400 448 352 448
WIRE 400 464 400 448
WIRE 480 464 480 224
WIRE 480 464 400 464
WIRE 272 544 272 496
WIRE 304 544 272 544
WIRE 304 592 304 544
WIRE -304 624 -304 448
WIRE 160 656 160 448
WIRE 176 656 160 656
WIRE 480 656 480 464
WIRE 480 656 432 656
WIRE -304 736 -304 704
WIRE 480 752 480 656
WIRE 480 752 432 752
WIRE 304 848 304 816
FLAG -288 208 0
FLAG 320 320 0
FLAG -304 736 0
FLAG 304 848 0
FLAG 800 144 0
SYMBOL voltage -288 80 R0
WINDOW 123 0 0 Left 2
WINDOW 39 0 0 Left 2
SYMATTR InstName V1
SYMATTR Value 14.8
SYMBOL SpecialFunctions\\LTC4357 320 176 R0
SYMATTR InstName U1
SYMBOL voltage -304 608 R0
WINDOW 123 0 0 Left 2
WINDOW 39 0 0 Left 2
SYMATTR InstName V2
SYMATTR Value 15.5
SYMBOL SpecialFunctions\\LTC4357 304 704 R0
SYMATTR InstName U3
SYMBOL res -96 -64 R270
WINDOW 0 32 56 VTop 2
WINDOW 3 0 56 VBottom 2
SYMATTR InstName R1
SYMATTR Value .001
SYMBOL res -112 464 R270
WINDOW 0 32 56 VTop 2
WINDOW 3 0 56 VBottom 2
SYMATTR InstName R2
SYMATTR Value .001
SYMBOL nmos 384 -32 M270
SYMATTR InstName M1
SYMATTR Value IPT004N03L
SYMBOL current 800 0 R0
WINDOW 123 0 0 Left 2
WINDOW 39 0 0 Left 2
SYMATTR InstName I1
SYMATTR Value 60
SYMBOL nmos 352 496 M270
SYMATTR InstName M2
SYMATTR Value IPT004N03L
TEXT -32 288 Left 2 !.tran 1ms uic
