Version 4
SHEET 1 2812 680
WIRE 1472 -128 1376 -128
WIRE 1792 -128 1472 -128
WIRE 1824 -128 1792 -128
WIRE 1920 -128 1904 -128
WIRE 2032 -128 1920 -128
WIRE 2144 -128 2096 -128
WIRE 2208 -128 2144 -128
WIRE 2288 -128 2208 -128
WIRE 1376 -112 1376 -128
WIRE 1472 -112 1472 -128
WIRE 2208 -112 2208 -128
WIRE 2288 -112 2288 -128
WIRE 1792 -80 1792 -128
WIRE 1920 -80 1920 -128
WIRE 1376 -16 1376 -32
WIRE 1472 -16 1472 -32
WIRE 1696 -16 1472 -16
WIRE 2032 -16 2016 -16
WIRE 2112 -16 2096 -16
WIRE 2208 -16 2208 -48
WIRE 2288 -16 2288 -32
WIRE 1472 0 1472 -16
WIRE 1616 80 1600 80
WIRE 1696 80 1680 80
WIRE 2032 80 2016 80
WIRE 1472 96 1472 80
WIRE 1552 176 1504 176
WIRE 1696 176 1632 176
WIRE 2032 176 2032 80
WIRE 2032 176 2016 176
WIRE 2144 176 2144 -128
WIRE 1520 272 1504 272
WIRE 1600 272 1584 272
WIRE 1696 272 1680 272
WIRE 2144 272 2144 256
WIRE 2144 272 2016 272
WIRE 2144 288 2144 272
WIRE 1792 352 1792 336
WIRE 1920 352 1920 336
WIRE 2144 384 2144 368
FLAG 2208 -16 0
FLAG 2288 -16 0
FLAG 1376 -16 0
FLAG 2288 -128 OUT
FLAG 1376 -128 IN
FLAG 1920 352 0
FLAG 1792 352 0
FLAG 2112 -16 0
FLAG 2144 384 0
FLAG 1600 80 0
FLAG 1472 96 0
FLAG 1504 176 0
FLAG 1504 272 0
SYMBOL RES 1648 160 R90
WINDOW 0 0 56 VBottom 2
WINDOW 3 32 56 VTop 2
SYMATTR InstName R1
SYMATTR Value 41.2K
SYMBOL res 2128 272 R0
SYMATTR InstName R2
SYMATTR Value 15.8K
SYMBOL res 2128 160 R0
SYMATTR InstName R3
SYMATTR Value 464K
SYMBOL ind 1808 -112 R270
WINDOW 0 32 56 VTop 2
WINDOW 3 5 56 VBottom 2
SYMATTR InstName L1
SYMATTR Value 33µ
SYMATTR SpiceLine Rser=0.05
SYMBOL schottky 2032 -112 R270
WINDOW 0 32 32 VTop 2
WINDOW 3 0 32 VBottom 2
SYMATTR InstName D1
SYMATTR Value MBRS360
SYMBOL res 1696 256 R90
WINDOW 0 0 56 VBottom 2
WINDOW 3 32 56 VTop 2
SYMATTR InstName R4
SYMATTR Value 10K
SYMBOL cap 1584 288 M270
WINDOW 0 32 32 VTop 2
WINDOW 3 0 32 VBottom 2
SYMATTR InstName C2
SYMATTR Value .01µ
SYMBOL VOLTAGE 1376 -128 R0
SYMATTR InstName V1
SYMATTR Value 14.8V
SYMBOL cap 1680 64 R90
WINDOW 0 0 32 VBottom 2
WINDOW 3 32 32 VTop 2
SYMATTR InstName C4
SYMATTR Value .01µ
SYMBOL res 1456 -16 R0
SYMATTR InstName R5
SYMATTR Value 53.6K
SYMBOL res 1456 -128 R0
SYMATTR InstName R6
SYMATTR Value 392K
SYMBOL res 2272 -128 R0
SYMATTR InstName Rload
SYMATTR Value 96
SYMBOL LT3958 1856 128 R0
SYMATTR InstName U1
SYMBOL cap 2192 -112 R0
SYMATTR InstName C1
SYMATTR Value 10µ
SYMATTR SpiceLine Rser=0.005
SYMBOL cap 2032 0 R270
WINDOW 0 32 32 VTop 2
WINDOW 3 0 32 VBottom 2
SYMATTR InstName C3
SYMATTR Value 4.7µ
TEXT 2264 336 Left 2 !.tran 2.5m startup
TEXT 1880 -176 Bottom 2 ;LT3958 - Boost, Flyback, SEPIC and Inverting Converter\nInput: 24V       Output: 48V@500mA
TEXT 1280 408 Left 2 ;Note:\n  If the simulation model is not found please update with the "Sync Release" command from the "Tools" menu.\n  It remains the customer's responsibility to verify proper and reliable operation in the actual application.\n  Component substitution and printed circuit board layout may significantly affect circuit performance or reliability.\n  Contact your local sales representative for assistance. This circuit is distributed to customers only for use with LTC parts.\n  Copyright © 2011 Linear Technology Inc. All rights reserved.
